Circuit: * C:\Users\ros\Desktop\GuitarPedalProject\finalProjSimulation.asc

Direct Newton iteration for .op point succeeded.

Date: Mon Dec 12 09:40:34 2022
Total elapsed time: 0.056 seconds.

tnom = 27
temp = 27
method = modified trap
totiter = 2142
traniter = 2131
tranpoints = 1051
accept = 1050
rejected = 1
matrix size = 76
fillins = 98
solver = Normal
Matrix Compiler1: 9.04 KB object code size  1.6/0.7/[0.5]
Matrix Compiler2: 8.02 KB object code size  0.5/0.7/[0.4]

