Circuit: * C:\Users\ros\Desktop\GuitarPedalProject\v2 Pedal\finalProjSimulation.asc

Early termination of direct N-R iteration.
Direct Newton iteration failed to find .op point.  (Use ".option noopiter" to skip.)
Starting Gmin stepping
Gmin = 10
vernier = 0.5
vernier = 0.25
vernier = 0.125
Gmin = 5.5165
vernier = 0.0625
vernier = 0.03125
vernier = 0.015625
vernier = 0.0078125
Gmin = 5.49501
vernier = 0.00390625
vernier = 0.00195313
vernier = 0.000976563
vernier = 0.000488281
Gmin = 5.50104
Gmin = 0
Gmin stepping succeeded in finding the operating point.


Date: Mon May 22 20:42:04 2023
Total elapsed time: 0.139 seconds.

tnom = 27
temp = 27
method = modified trap
totiter = 3481
traniter = 2094
tranpoints = 1048
accept = 1048
rejected = 0
matrix size = 54
fillins = 189
solver = Normal
Matrix Compiler1: 12.03 KB object code size  1.8/0.7/[0.7]
Matrix Compiler2: 7.66 KB object code size  0.9/0.8/[0.4]

